ECE6613PD/Problem4.cf
 10/11/12 POWER TECHNOLOGIES    100.0 0    0
BUS DATA FOLLOWS                      4 ITEMS
   1 BUS1         1  1  2 1.0000   0.00     0.00     0.00     0.00    0.00  138.00 1.0000    1.00   -1.00  0.0000  0.0000    0    1
   2 BUS2         1  1  3 1.0000   0.00     0.00     0.00     0.60    0.50  138.00 1.0000    0.5    -0.5   0.0000  0.0000    0    2
   3 BUS3         1  1  0 1.0000   0.00     0.00     0.00     0.00    0.00  138.00 0.0000    1.05    0.95  0.0000  0.0000    0    3
   4 BUS$         1  1  0 1.0000   0.00     1.80     0.8719   0.00    0.00   20.00 0.0000    1.10    0.90  0.0000  0.0000    0    4
-999
BRANCH DATA FOLLOWS                   3 ITEMS
   1    2  0  0 1 0  0.005   0.0500     0.00000     0     0     0    0 0  0.0000    0.00 0.0000 0.00000.00000  0.0000 0.0000     1
   2    3  0  0 1 0  0.005   0.0500     0.00000     0     0     0    0 0  0.0000    0.00 0.0000 0.00000.00000  0.0000 0.0000     2
   1    3  0  0 1 0  0.005   0.0500     0.00000     0     0     0    0 0  0.0000    0.00 0.0000 0.00000.00000  0.0000 0.0000     3
   3    4  0  0 1 1  0.000   0.0500     0.00000     0     0     0    0 0  0.0000    0.00 0.0000 0.00000.00000  0.0000 0.0000     4
-999
LOSS ZONES FOLLOWS                    0 ITEMS
-99
INTERCHANGE DATA FOLLOWS              1 ITEMS
 1    1 ALTA             0.0 999.99  0                                                                                             1
-9
TIE LINES FOLLOW                      0 ITEMS
-999
END OF DATA
